Version 4
SHEET 1 2888 1476
WIRE 2128 416 2064 416
WIRE 1936 464 1328 464
WIRE 2112 464 2032 464
WIRE 2224 464 2208 464
WIRE 2400 464 2224 464
WIRE 2528 464 2400 464
WIRE 2624 464 2528 464
WIRE 2528 480 2528 464
WIRE 2624 480 2624 464
WIRE 2064 512 2064 416
WIRE 2192 512 2064 512
WIRE 2400 544 2400 464
WIRE 1328 576 1328 464
WIRE 1680 576 1328 576
WIRE 2224 576 2224 464
WIRE 2224 576 1936 576
WIRE 2528 576 2528 544
WIRE 2624 576 2624 560
WIRE 1328 592 1328 576
WIRE 1680 656 1648 656
WIRE 2016 656 2016 512
WIRE 2016 656 1936 656
WIRE 2192 656 2192 512
WIRE 2192 656 2016 656
WIRE 1328 688 1328 672
WIRE 1488 736 1424 736
WIRE 1568 736 1488 736
WIRE 1680 736 1568 736
WIRE 2400 736 2400 624
WIRE 2400 736 1936 736
WIRE 2128 1056 2064 1056
WIRE 1936 1104 1328 1104
WIRE 2112 1104 2032 1104
WIRE 2224 1104 2208 1104
WIRE 2400 1104 2224 1104
WIRE 2528 1104 2400 1104
WIRE 2624 1104 2528 1104
WIRE 2528 1120 2528 1104
WIRE 2624 1120 2624 1104
WIRE 2064 1152 2064 1056
WIRE 2192 1152 2064 1152
WIRE 2400 1184 2400 1104
WIRE 1328 1216 1328 1104
WIRE 1680 1216 1328 1216
WIRE 2224 1216 2224 1104
WIRE 2224 1216 1936 1216
WIRE 2528 1216 2528 1184
WIRE 2624 1216 2624 1200
WIRE 1328 1232 1328 1216
WIRE 1680 1296 1648 1296
WIRE 2016 1296 2016 1152
WIRE 2016 1296 1936 1296
WIRE 2192 1296 2192 1152
WIRE 2192 1296 2016 1296
WIRE 1328 1328 1328 1312
WIRE 1584 1376 1536 1376
WIRE 1680 1376 1584 1376
WIRE 2400 1376 2400 1264
WIRE 2400 1376 1936 1376
FLAG 1648 1296 0
FLAG 2528 1216 0
FLAG 2624 1216 0
FLAG 1328 1328 0
FLAG 2624 1104 OUT
FLAG 1648 656 0
FLAG 2528 576 0
FLAG 2624 576 0
FLAG 1328 688 0
FLAG 2624 464 OUT
FLAG 1568 816 0
FLAG 1056 832 VRST
FLAG 1056 912 0
FLAG 1328 1104 VADP
FLAG 1488 656 VADP
FLAG 1424 656 VRST
FLAG 1536 1296 VRST
FLAG 1584 1456 0
SYMBOL POWERPRODUCTS\\LTC4412 1808 1296 R0
SYMATTR InstName U1
SYMBOL PMOS 1936 1152 R270
WINDOW 0 90 48 VCenter 2
WINDOW 3 63 45 VCenter 2
SYMATTR InstName Q1
SYMATTR Value FDC638P
SYMBOL RES 2384 1168 R0
SYMATTR InstName R1
SYMATTR Value 470K
SYMBOL cap 2512 1120 R0
SYMATTR InstName C1
SYMATTR Value 10µ
SYMBOL res 2608 1104 R0
SYMATTR InstName Rload
SYMATTR Value 100
SYMBOL VOLTAGE 1328 1216 R0
WINDOW 123 0 0 Left 0
WINDOW 39 0 0 Left 0
SYMATTR InstName Adapter
SYMATTR Value PWL(0 18 1 0)
SYMBOL PMOS 2208 1056 R90
WINDOW 0 90 48 VCenter 2
WINDOW 3 63 45 VCenter 2
SYMATTR InstName Q2
SYMATTR Value FDC638P
SYMBOL POWERPRODUCTS\\LTC4412 1808 656 R0
SYMATTR InstName U2
SYMBOL PMOS 1936 512 R270
WINDOW 0 90 48 VCenter 2
WINDOW 3 63 45 VCenter 2
SYMATTR InstName Q3
SYMATTR Value FDC638P
SYMBOL RES 2384 528 R0
SYMATTR InstName R2
SYMATTR Value 470K
SYMBOL cap 2512 480 R0
SYMATTR InstName C2
SYMATTR Value 10µ
SYMBOL res 2608 464 R0
SYMATTR InstName Rload1
SYMATTR Value 100
SYMBOL VOLTAGE 1328 576 R0
WINDOW 123 0 0 Left 0
WINDOW 39 0 0 Left 0
SYMATTR InstName Batt
SYMATTR Value 16.8
SYMBOL PMOS 2208 416 R90
WINDOW 0 90 48 VCenter 2
WINDOW 3 63 45 VCenter 2
SYMATTR InstName Q4
SYMATTR Value FDC638P
SYMBOL res 1552 720 R0
SYMATTR InstName R3
SYMATTR Value 10k
SYMBOL res 1472 640 R0
SYMATTR InstName R4
SYMATTR Value 470k
SYMBOL res 1408 640 R0
SYMATTR InstName R5
SYMATTR Value 1k
SYMBOL VOLTAGE 1056 816 R0
WINDOW 123 0 0 Left 0
WINDOW 39 0 0 Left 0
SYMATTR InstName RST
SYMATTR Value PWL(0 0 0.49 0 0.5 5 0.7 0)
SYMBOL res 1568 1360 R0
SYMATTR InstName R6
SYMATTR Value 10k
SYMBOL res 1520 1280 R0
SYMATTR InstName R7
SYMATTR Value 1k
TEXT 2464 1368 Left 2 !.tran 1
